<routes>
    <route id="route0" edges="A3B3 B3B4"/>
    <route id="route1" edges="C3B3 B3A3"/>
    <vType id="type1" accel="0.8" decel="7.5" sigma="0.5" length="5" maxSpeed="27.7"/>
    
    <vehicle id="1" type="type1" depart="0" route="route0" color="1,0,0"/>
    <vehicle id="2" type="type1" depart="0" route="route1" color="0,1,0"/>
    </routes>